data/models/IEEE_123_Bus-G/ieee123_VLN_Node.Txt

LINE-GROUND and LINE-LINE VOLTAGES BY BUS & NODE

Bus      Node    VLN (kV)   Angle      pu     Base kV    Node-Node   VLL (kV)  Angle      pu

150 .... 1       2.4018 /_    0.0   0.99999     4.160        1-2       4.16 /_   30.0   0.99999
   -     2       2.4018 /_ -120.0   0.99999     4.160        2-3       4.16 /_  -90.0   0.99999
   -     3       2.4018 /_  120.0   0.99999     4.160        3-1       4.16 /_  150.0   0.99999
149 .... 1       2.4009 /_    0.0   0.99964     4.160        1-2     4.1587 /_   30.0   0.99969
   -     2       2.4012 /_ -120.0   0.99977     4.160        2-3      4.159 /_  -90.0   0.99975
   -     3       2.4011 /_  120.0   0.99972     4.160        3-1     4.1587 /_  150.0   0.99969
1 ...... 1       2.3704 /_   -0.7   0.98692     4.160        1-2       4.12 /_   29.7   0.99039
   -     2       2.3946 /_ -120.3     0.997     4.160        2-3     4.1359 /_  -90.5    0.9942
   -     3       2.3795 /_  119.6   0.99071     4.160        3-1     4.1185 /_  149.4   0.99003
7 ...... 1       2.3476 /_   -1.1   0.97745     4.160        1-2      4.092 /_   29.4   0.98365
   -     2       2.3898 /_ -120.6   0.99502     4.160        2-3     4.1197 /_  -90.8   0.99031
   -     3       2.3655 /_  119.3    0.9849     4.160        3-1     4.0909 /_  149.0    0.9834
8 ...... 1       2.3329 /_   -1.4   0.97131     4.160        1-2     4.0736 /_   29.3   0.97922
   -     2       2.3865 /_ -120.8   0.99364     4.160        2-3     4.1089 /_  -91.0   0.98772
   -     3       2.3563 /_  119.1   0.98105     4.160        3-1     4.0728 /_  148.7   0.97903
13 ..... 1       2.3133 /_   -1.9   0.96316     4.160        1-2     4.0479 /_   29.0   0.97305
   -     2       2.3807 /_ -121.0   0.99122     4.160        2-3      4.093 /_  -91.4    0.9839
   -     3       2.3424 /_  118.8   0.97529     4.160        3-1     4.0464 /_  148.3    0.9727
152 .... 1       2.3129 /_   -1.9     0.963     4.160        1-2     4.0473 /_   29.0    0.9729
   -     2       2.3804 /_ -121.0    0.9911     4.160        2-3     4.0925 /_  -91.4   0.98377
   -     3       2.3421 /_  118.8   0.97516     4.160        3-1     4.0458 /_  148.3   0.97256
52 ..... 1       2.2979 /_   -2.2   0.95673     4.160        1-2      4.029 /_   28.8    0.9685
   -     2       2.3766 /_ -121.3   0.98953     4.160        2-3     4.0824 /_  -91.7   0.98134
   -     3       2.3343 /_  118.6   0.97189     4.160        3-1     4.0281 /_  147.9    0.9683
53 ..... 1        2.291 /_   -2.4   0.95389     4.160        1-2     4.0203 /_   28.7   0.96642
   -     2       2.3744 /_ -121.4    0.9886     4.160        2-3     4.0773 /_  -91.8   0.98011
   -     3       2.3304 /_  118.4   0.97029     4.160        3-1     4.0195 /_  147.7   0.96623
54 ..... 1       2.2872 /_   -2.5   0.95229     4.160        1-2     4.0152 /_   28.6   0.96519
   -     2       2.3728 /_ -121.5   0.98792     4.160        2-3      4.074 /_  -91.9   0.97933
   -     3       2.3281 /_  118.3   0.96931     4.160        3-1     4.0143 /_  147.6   0.96497
94_OPEN  1       2.2872 /_   -2.5   0.95229     4.160
57 ..... 1       2.2792 /_   -2.8   0.94896     4.160        1-2     4.0003 /_   28.4   0.96162
   -     2       2.3653 /_ -121.7   0.98483     4.160        2-3     4.0624 /_  -92.1   0.97654
   -     3       2.3219 /_  118.1   0.96673     4.160        3-1     4.0033 /_  147.4   0.96233
60 ..... 1       2.2625 /_   -3.5   0.94201     4.160        1-2     3.9694 /_   27.8   0.95419
   -     2       2.3519 /_ -122.2   0.97922     4.160        2-3     4.0394 /_  -92.6     0.971
   -     3       2.3074 /_  117.6   0.96071     4.160        3-1     3.9798 /_  146.8   0.95668
160 .... 1       2.2622 /_   -3.5    0.9419     4.160        1-2      3.969 /_   27.8   0.95409
   -     2       2.3517 /_ -122.2   0.97914     4.160        2-3     4.0391 /_  -92.6   0.97093
   -     3       2.3072 /_  117.6   0.96063     4.160        3-1     3.9794 /_  146.8   0.95659
160R ... 1       2.2622 /_   -3.5    0.9419     4.160        1-2     3.9945 /_   28.0   0.96022
   -     2       2.3811 /_ -122.2   0.99138     4.160        2-3      4.127 /_  -92.3   0.99206
   -     3       2.3793 /_  117.6   0.99065     4.160        3-1     4.0426 /_  146.3   0.97177
67 ..... 1       2.2568 /_   -3.8   0.93964     4.160        1-2     3.9859 /_   27.8   0.95816
   -     2       2.3785 /_ -122.3   0.99031     4.160        2-3      4.119 /_  -92.5   0.99013
   -     3       2.3739 /_  117.5    0.9884     4.160        3-1     4.0358 /_  146.1   0.97015
97 ..... 1       2.2544 /_   -3.8   0.93862     4.160        1-2     3.9821 /_   27.8   0.95723
   -     2       2.3772 /_ -122.4   0.98977     4.160        2-3     4.1162 /_  -92.5   0.98948
   -     3       2.3722 /_  117.5   0.98768     4.160        3-1     4.0329 /_  146.0   0.96945
197 .... 1       2.2543 /_   -3.8   0.93858     4.160        1-2     3.9819 /_   27.8    0.9572
   -     2       2.3772 /_ -122.4   0.98975     4.160        2-3     4.1161 /_  -92.5   0.98946
   -     3       2.3721 /_  117.5   0.98765     4.160        3-1     4.0328 /_  146.0   0.96942
101 .... 1       2.2523 /_   -3.9   0.93778     4.160        1-2      3.979 /_   27.8    0.9565
   -     2       2.3764 /_ -122.4   0.98945     4.160        2-3     4.1143 /_  -92.5     0.989
   -     3       2.3708 /_  117.5   0.98709     4.160        3-1     4.0306 /_  146.0    0.9689
105 .... 1       2.2492 /_   -3.9   0.93645     4.160        1-2      3.976 /_   27.8   0.95577
   -     2        2.376 /_ -122.4   0.98926     4.160        2-3     4.1129 /_  -92.5   0.98867
   -     3       2.3715 /_  117.5   0.98738     4.160        3-1     4.0299 /_  145.9   0.96873
108 .... 1       2.2456 /_   -4.0   0.93498     4.160        1-2     3.9731 /_   27.8   0.95507
   -     2       2.3775 /_ -122.4   0.98991     4.160        2-3     4.1128 /_  -92.5   0.98864
   -     3       2.3711 /_  117.5   0.98723     4.160        3-1     4.0289 /_  145.9   0.96848
300 .... 1       2.2456 /_   -4.0   0.93498     4.160        1-2     3.9731 /_   27.8   0.95507
   -     2       2.3775 /_ -122.4   0.98991     4.160        2-3     4.1128 /_  -92.5   0.98864
   -     3       2.3711 /_  117.5   0.98723     4.160        3-1     4.0289 /_  145.9   0.96848
109 .... 1       2.2357 /_   -4.1   0.93086     4.160
110 .... 1       2.2311 /_   -4.1   0.92893     4.160
112 .... 1       2.2296 /_   -4.1    0.9283     4.160
113 .... 1       2.2248 /_   -4.2   0.92631     4.160
114 .... 1       2.2237 /_   -4.2   0.92587     4.160
111 .... 1       2.2292 /_   -4.1   0.92816     4.160
106 .... 2       2.3731 /_ -122.5   0.98806     4.160
107 .... 2       2.3694 /_ -122.5   0.98653     4.160
102 .... 3       2.3671 /_  117.4   0.98558     4.160
103 .... 3        2.363 /_  117.4   0.98384     4.160
104 .... 3       2.3585 /_  117.4   0.98197     4.160
98 ..... 1       2.2538 /_   -3.8   0.93838     4.160        1-2      3.981 /_   27.8   0.95697
   -     2       2.3766 /_ -122.4   0.98951     4.160        2-3     4.1153 /_  -92.5   0.98925
   -     3       2.3717 /_  117.5   0.98749     4.160        3-1     4.0321 /_  146.0   0.96925
99 ..... 1       2.2544 /_   -3.8   0.93865     4.160        1-2     3.9803 /_   27.8   0.95681
   -     2       2.3746 /_ -122.4   0.98867     4.160        2-3     4.1135 /_  -92.5   0.98882
   -     3        2.371 /_  117.4    0.9872     4.160        3-1      4.031 /_  146.0   0.96898
100 .... 1       2.2549 /_   -3.8   0.93884     4.160        1-2     3.9803 /_   27.8   0.95679
   -     2       2.3744 /_ -122.4   0.98861     4.160        2-3     4.1132 /_  -92.5   0.98875
   -     3       2.3701 /_  117.4   0.98682     4.160        3-1     4.0303 /_  146.0   0.96881
450 .... 1       2.2549 /_   -3.8   0.93884     4.160        1-2     3.9803 /_   27.8   0.95679
   -     2       2.3744 /_ -122.4   0.98861     4.160        2-3     4.1132 /_  -92.5   0.98875
   -     3       2.3701 /_  117.4   0.98682     4.160        3-1     4.0303 /_  146.0   0.96881
72 ..... 1       2.2573 /_   -3.9   0.93983     4.160        1-2     3.9844 /_   27.7   0.95778
   -     2       2.3761 /_ -122.5    0.9893     4.160        2-3     4.1166 /_  -92.6   0.98958
   -     3       2.3733 /_  117.4   0.98815     4.160        3-1     4.0353 /_  146.0   0.97002
76 ..... 1       2.2567 /_   -3.9   0.93958     4.160        1-2     3.9834 /_   27.6   0.95754
   -     2       2.3746 /_ -122.6    0.9887     4.160        2-3     4.1155 /_  -92.6   0.98931
   -     3       2.3747 /_  117.3   0.98875     4.160        3-1     4.0363 /_  145.9   0.97027
86 ..... 1        2.254 /_   -4.0   0.93849     4.160        1-2     3.9802 /_   27.5   0.95678
   -     2       2.3702 /_ -122.7   0.98685     4.160        2-3     4.1117 /_  -92.7   0.98838
   -     3       2.3782 /_  117.3   0.99017     4.160        3-1     4.0371 /_  145.8   0.97046
87 ..... 1       2.2525 /_   -4.0   0.93785     4.160        1-2     3.9786 /_   27.4   0.95638
   -     2       2.3682 /_ -122.8   0.98602     4.160        2-3     4.1094 /_  -92.7   0.98785
   -     3       2.3794 /_  117.3   0.99069     4.160        3-1     4.0371 /_  145.8   0.97045
89 ..... 1       2.2514 /_   -4.0   0.93741     4.160        1-2     3.9781 /_   27.4   0.95628
   -     2       2.3675 /_ -122.9   0.98574     4.160        2-3     4.1089 /_  -92.7   0.98771
   -     3       2.3803 /_  117.3   0.99106     4.160        3-1     4.0366 /_  145.7   0.97034
91 ..... 1       2.2509 /_   -4.0    0.9372     4.160        1-2     3.9774 /_   27.4   0.95609
   -     2       2.3667 /_ -122.9   0.98541     4.160        2-3     4.1086 /_  -92.7   0.98765
   -     3       2.3808 /_  117.2   0.99125     4.160        3-1     4.0362 /_  145.7   0.97024
93 ..... 1       2.2501 /_   -4.0   0.93686     4.160        1-2     3.9765 /_   27.4   0.95589
   -     2       2.3663 /_ -122.9   0.98525     4.160        2-3      4.108 /_  -92.7   0.98749
   -     3        2.381 /_  117.3   0.99135     4.160        3-1      4.036 /_  145.7    0.9702
95 ..... 1         2.25 /_   -4.0   0.93682     4.160        1-2     3.9762 /_   27.4   0.95582
   -     2       2.3654 /_ -122.9   0.98485     4.160        2-3     4.1072 /_  -92.7   0.98731
   -     3       2.3815 /_  117.3   0.99154     4.160        3-1     4.0361 /_  145.7    0.9702
96 ..... 2       2.3647 /_ -122.9   0.98458     4.160
94 ..... 1       2.2483 /_   -4.0   0.93611     4.160
92 ..... 3       2.3804 /_  117.2   0.99111     4.160
90 ..... 2       2.3673 /_ -122.9   0.98562     4.160
88 ..... 1       2.2522 /_   -4.0   0.93773     4.160
77 ..... 1        2.259 /_   -4.0   0.94055     4.160        1-2     3.9879 /_   27.6   0.95863
   -     2       2.3771 /_ -122.6   0.98973     4.160        2-3     4.1193 /_  -92.7   0.99022
   -     3       2.3768 /_  117.2    0.9896     4.160        3-1     4.0398 /_  145.8   0.97112
78 ..... 1       2.2596 /_   -4.0    0.9408     4.160        1-2     3.9892 /_   27.5   0.95893
   -     2        2.378 /_ -122.7   0.99012     4.160        2-3     4.1205 /_  -92.7   0.99051
   -     3       2.3771 /_  117.2   0.98975     4.160        3-1     4.0407 /_  145.8   0.97133
80 ..... 1       2.2639 /_   -4.1   0.94261     4.160        1-2     3.9962 /_   27.5   0.96062
   -     2       2.3819 /_ -122.7   0.99171     4.160        2-3     4.1264 /_  -92.8   0.99191
   -     3       2.3791 /_  117.1   0.99054     4.160        3-1     4.0453 /_  145.7   0.97242
81 ..... 1       2.2656 /_   -4.1   0.94329     4.160        1-2      3.999 /_   27.4   0.96129
   -     2       2.3838 /_ -122.7   0.99253     4.160        2-3      4.129 /_  -92.9   0.99254
   -     3       2.3795 /_  117.1   0.99073     4.160        3-1     4.0469 /_  145.7   0.97282
84 ..... 3        2.373 /_  117.0   0.98803     4.160
85 ..... 3         2.37 /_  117.0   0.98676     4.160
82 ..... 1       2.2673 /_   -4.1   0.94399     4.160        1-2     4.0028 /_   27.4   0.96222
   -     2       2.3868 /_ -122.8   0.99375     4.160        2-3      4.133 /_  -92.9   0.99352
   -     3       2.3813 /_  117.1   0.99148     4.160        3-1     4.0501 /_  145.7   0.97359
83 ..... 1       2.2698 /_   -4.2   0.94503     4.160        1-2     4.0074 /_   27.4   0.96331
   -     2       2.3893 /_ -122.8   0.99482     4.160        2-3     4.1372 /_  -92.9   0.99452
   -     3       2.3833 /_  117.0   0.99229     4.160        3-1     4.0536 /_  145.6   0.97442
79 ..... 1       2.2589 /_   -4.0   0.94053     4.160        1-2     3.9886 /_   27.5    0.9588
   -     2       2.3783 /_ -122.7   0.99024     4.160        2-3     4.1204 /_  -92.7   0.99049
   -     3        2.377 /_  117.2    0.9897     4.160        3-1     4.0405 /_  145.8   0.97128
73 ..... 3       2.3681 /_  117.3   0.98596     4.160
74 ..... 3       2.3636 /_  117.3   0.98412     4.160
75 ..... 3       2.3611 /_  117.3   0.98305     4.160
68 ..... 1       2.2529 /_   -3.8     0.938     4.160
69 ..... 1       2.2484 /_   -3.8   0.93613     4.160
70 ..... 1       2.2452 /_   -3.9    0.9348     4.160
71 ..... 1       2.2434 /_   -3.9   0.93405     4.160
62 ..... 1       2.2607 /_   -3.5   0.94125     4.160        1-2     3.9651 /_   27.9   0.95315
   -     2       2.3492 /_ -122.1   0.97811     4.160        2-3     4.0336 /_  -92.6   0.96961
   -     3       2.3025 /_  117.6   0.95866     4.160        3-1     3.9736 /_  146.8   0.95519
63 ..... 1       2.2592 /_   -3.5   0.94066     4.160        1-2     3.9621 /_   27.9   0.95244
   -     2       2.3472 /_ -122.1   0.97726     4.160        2-3     4.0301 /_  -92.6   0.96877
   -     3          2.3 /_  117.6   0.95764     4.160        3-1     3.9698 /_  146.8   0.95428
64 ..... 1       2.2586 /_   -3.4   0.94038     4.160        1-2     3.9574 /_   27.9   0.95129
   -     2       2.3427 /_ -122.1   0.97541     4.160        2-3     4.0231 /_  -92.6   0.96708
   -     3       2.2948 /_  117.6   0.95544     4.160        3-1     3.9636 /_  146.8   0.95279
65 ..... 1       2.2571 /_   -3.5   0.93974     4.160        1-2     3.9543 /_   27.9   0.95054
   -     2        2.342 /_ -122.0   0.97511     4.160        2-3     4.0172 /_  -92.6   0.96567
   -     3       2.2874 /_  117.6    0.9524     4.160        3-1      3.956 /_  146.8   0.95097
66 ..... 1       2.2576 /_   -3.5   0.93999     4.160        1-2     3.9542 /_   27.9   0.95052
   -     2       2.3426 /_ -122.0   0.97537     4.160        2-3      4.015 /_  -92.6   0.96515
   -     3       2.2837 /_  117.6   0.95082     4.160        3-1     3.9537 /_  146.9   0.95041
61 ..... 1       2.2625 /_   -3.5   0.94201     4.160        1-2     3.9694 /_   27.8   0.95419
   -     2       2.3519 /_ -122.2   0.97922     4.160        2-3     4.0394 /_  -92.6     0.971
   -     3       2.3074 /_  117.6   0.96071     4.160        3-1     3.9798 /_  146.8   0.95668
61S .... 1       2.2625 /_   -3.5   0.94201     4.160        1-2     3.9694 /_   27.8   0.95419
   -     2       2.3519 /_ -122.2   0.97922     4.160        2-3     4.0394 /_  -92.6     0.971
   -     3       2.3074 /_  117.6   0.96071     4.160        3-1     3.9798 /_  146.8   0.95668
58 ..... 2       2.3637 /_ -121.7   0.98416     4.160
59 ..... 2       2.3629 /_ -121.7   0.98383     4.160
55 ..... 1       2.2867 /_   -2.5   0.95208     4.160        1-2     4.0148 /_   28.6   0.96509
   -     2       2.3726 /_ -121.5   0.98784     4.160        2-3     4.0737 /_  -91.9   0.97926
   -     3       2.3282 /_  118.3   0.96938     4.160        3-1     4.0141 /_  147.6   0.96493
56 ..... 1       2.2866 /_   -2.5   0.95205     4.160        1-2     4.0146 /_   28.6   0.96506
   -     2       2.3721 /_ -121.5   0.98766     4.160        2-3     4.0734 /_  -91.9   0.97918
   -     3       2.3284 /_  118.3   0.96947     4.160        3-1     4.0141 /_  147.6   0.96493
18 ..... 1        2.292 /_   -2.3   0.95428     4.160        1-2      4.017 /_   28.8   0.96563
   -     2       2.3708 /_ -121.3   0.98709     4.160        2-3     4.0651 /_  -91.6   0.97718
   -     3       2.3241 /_  118.8   0.96768     4.160        3-1     4.0193 /_  148.0   0.96617
135 .... 1       2.2918 /_   -2.3    0.9542     4.160        1-2     4.0167 /_   28.8   0.96555
   -     2       2.3706 /_ -121.3   0.98701     4.160        2-3     4.0648 /_  -91.6   0.97712
   -     3        2.324 /_  118.8   0.96762     4.160        3-1      4.019 /_  148.0    0.9661
35 ..... 1       2.2852 /_   -2.4   0.95145     4.160        1-2     4.0057 /_   28.7   0.96291
   -     2       2.3644 /_ -121.4   0.98446     4.160        2-3     4.0568 /_  -91.6   0.97519
   -     3       2.3214 /_  118.7   0.96655     4.160        3-1     4.0115 /_  147.9    0.9643
40 ..... 1       2.2815 /_   -2.4   0.94994     4.160        1-2     4.0004 /_   28.6   0.96164
   -     2       2.3617 /_ -121.4   0.98333     4.160        2-3     4.0522 /_  -91.7   0.97409
   -     3       2.3189 /_  118.6   0.96549     4.160        3-1     4.0059 /_  147.8   0.96296
42 ..... 1       2.2777 /_   -2.5   0.94835     4.160        1-2     3.9952 /_   28.6   0.96037
   -     2       2.3591 /_ -121.5   0.98222     4.160        2-3     4.0478 /_  -91.7   0.97303
   -     3       2.3168 /_  118.6    0.9646     4.160        3-1     4.0007 /_  147.8   0.96171
44 ..... 1       2.2751 /_   -2.5   0.94727     4.160        1-2     3.9914 /_   28.6   0.95947
   -     2       2.3574 /_ -121.5    0.9815     4.160        2-3     4.0447 /_  -91.8   0.97228
   -     3       2.3148 /_  118.6   0.96378     4.160        3-1     3.9967 /_  147.8   0.96074
47 ..... 1       2.2727 /_   -2.5   0.94624     4.160        1-2     3.9872 /_   28.6   0.95847
   -     2       2.3548 /_ -121.5   0.98043     4.160        2-3     4.0407 /_  -91.8   0.97132
   -     3       2.3124 /_  118.5   0.96277     4.160        3-1     3.9919 /_  147.7   0.95959
49 ..... 1        2.272 /_   -2.5   0.94596     4.160        1-2     3.9855 /_   28.5   0.95805
   -     2       2.3534 /_ -121.5   0.97985     4.160        2-3     4.0392 /_  -91.8   0.97096
   -     3       2.3116 /_  118.5   0.96244     4.160        3-1     3.9903 /_  147.7    0.9592
50 ..... 1       2.2719 /_   -2.6   0.94594     4.160        1-2     3.9851 /_   28.5   0.95795
   -     2       2.3534 /_ -121.5   0.97988     4.160        2-3      4.039 /_  -91.8    0.9709
   -     3       2.3107 /_  118.5   0.96209     4.160        3-1     3.9895 /_  147.7     0.959
51 ..... 1       2.2715 /_   -2.6   0.94577     4.160        1-2     3.9847 /_   28.5   0.95787
   -     2       2.3536 /_ -121.5   0.97996     4.160        2-3      4.039 /_  -91.8   0.97091
   -     3       2.3107 /_  118.5   0.96207     4.160        3-1     3.9893 /_  147.7   0.95897
151 .... 1       2.2715 /_   -2.6   0.94577     4.160        1-2     3.9847 /_   28.5   0.95787
   -     2       2.3536 /_ -121.5   0.97996     4.160        2-3      4.039 /_  -91.8   0.97091
   -     3       2.3107 /_  118.5   0.96207     4.160        3-1     3.9893 /_  147.7   0.95897
300_OPEN 1       2.2715 /_   -2.6   0.94577     4.160        1-2     3.9847 /_   28.5   0.95787
   -     2       2.3536 /_ -121.5   0.97996     4.160        2-3      4.039 /_  -91.8   0.97091
   -     3       2.3107 /_  118.5   0.96207     4.160        3-1     3.9893 /_  147.7   0.95897
48 ..... 1        2.272 /_   -2.5   0.94598     4.160        1-2     3.9861 /_   28.6    0.9582
   -     2       2.3541 /_ -121.5   0.98015     4.160        2-3     4.0398 /_  -91.8    0.9711
   -     3       2.3119 /_  118.5   0.96256     4.160        3-1     3.9909 /_  147.7   0.95934
45 ..... 1       2.2738 /_   -2.5   0.94673     4.160
46 ..... 1       2.2728 /_   -2.5   0.94631     4.160
43 ..... 2        2.356 /_ -121.5   0.98092     4.160
41 ..... 3       2.3178 /_  118.6   0.96505     4.160
36 ..... 1        2.283 /_   -2.4   0.95056     4.160        1-2     4.0034 /_   28.7   0.96237
   -     2       2.3632 /_ -121.4   0.98395     4.160
38 ..... 2       2.3616 /_ -121.4   0.98329     4.160
39 ..... 2       2.3606 /_ -121.4   0.98286     4.160
37 ..... 1       2.2812 /_   -2.4   0.94981     4.160
21 ..... 1       2.2908 /_   -2.4   0.95378     4.160        1-2     4.0149 /_   28.8   0.96513
   -     2       2.3709 /_ -121.3   0.98715     4.160        2-3     4.0632 /_  -91.6   0.97674
   -     3       2.3212 /_  118.7   0.96645     4.160        3-1     4.0162 /_  148.0   0.96544
23 ..... 1       2.2899 /_   -2.4    0.9534     4.160        1-2     4.0134 /_   28.7   0.96476
   -     2       2.3718 /_ -121.3   0.98752     4.160        2-3     4.0624 /_  -91.6   0.97653
   -     3       2.3184 /_  118.7   0.96528     4.160        3-1     4.0137 /_  147.9   0.96483
25 ..... 1       2.2884 /_   -2.5   0.95277     4.160        1-2     4.0116 /_   28.7   0.96433
   -     2       2.3729 /_ -121.3   0.98796     4.160        2-3     4.0616 /_  -91.7   0.97635
   -     3       2.3162 /_  118.7   0.96437     4.160        3-1     4.0116 /_  147.9   0.96433
25R .... 1       2.2883 /_   -2.5   0.95277     4.160
   -     3       2.3162 /_  118.7   0.96437     4.160        3-1     4.0116 /_  147.9   0.96432
26 ..... 1       2.2878 /_   -2.5   0.95253     4.160
   -     3        2.315 /_  118.7   0.96386     4.160        3-1     4.0103 /_  147.9   0.96402
31 ..... 3       2.3135 /_  118.7   0.96324     4.160
32 ..... 3       2.3125 /_  118.7   0.96284     4.160
27 ..... 1       2.2869 /_   -2.5   0.95217     4.160
   -     3       2.3149 /_  118.7   0.96383     4.160        3-1     4.0101 /_  147.9   0.96396
33 ..... 1       2.2837 /_   -2.6   0.95085     4.160
28 ..... 1       2.2875 /_   -2.5   0.95242     4.160        1-2     4.0108 /_   28.7   0.96412
   -     2       2.3734 /_ -121.3   0.98818     4.160        2-3     4.0614 /_  -91.7   0.97629
   -     3       2.3154 /_  118.7   0.96402     4.160        3-1     4.0107 /_  147.9   0.96412
29 ..... 1       2.2872 /_   -2.5   0.95228     4.160        1-2     4.0102 /_   28.7   0.96398
   -     2       2.3737 /_ -121.2   0.98833     4.160        2-3      4.061 /_  -91.7    0.9762
   -     3       2.3143 /_  118.7   0.96356     4.160        3-1     4.0097 /_  147.9   0.96388
30 ..... 1       2.2878 /_   -2.5   0.95256     4.160        1-2     4.0103 /_   28.7   0.96401
   -     2       2.3736 /_ -121.2   0.98828     4.160        2-3     4.0607 /_  -91.7   0.97612
   -     3       2.3131 /_  118.7   0.96308     4.160        3-1     4.0089 /_  147.9   0.96368
250 .... 1       2.2878 /_   -2.5   0.95256     4.160        1-2     4.0103 /_   28.7   0.96401
   -     2       2.3736 /_ -121.2   0.98828     4.160        2-3     4.0607 /_  -91.7   0.97612
   -     3       2.3131 /_  118.7   0.96308     4.160        3-1     4.0089 /_  147.9   0.96368
24 ..... 3       2.3148 /_  118.7   0.96378     4.160
22 ..... 2       2.3676 /_ -121.3   0.98579     4.160
19 ..... 1       2.2887 /_   -2.3   0.95293     4.160
20 ..... 1       2.2867 /_   -2.4   0.95208     4.160
34 ..... 3         2.34 /_  118.8   0.97429     4.160
15 ..... 3       2.3391 /_  118.8   0.97389     4.160
17 ..... 3       2.3379 /_  118.8   0.97341     4.160
16 ..... 3       2.3366 /_  118.8   0.97287     4.160
9 ...... 1       2.3293 /_   -1.5   0.96983     4.160
9R ..... 1       2.3293 /_   -1.5   0.96983     4.160
14 ..... 1       2.3254 /_   -1.5   0.96818     4.160
10 ..... 1       2.3246 /_   -1.5   0.96786     4.160
11 ..... 1       2.3238 /_   -1.5   0.96755     4.160
12 ..... 2       2.3858 /_ -120.8   0.99334     4.160
3 ...... 3       2.3755 /_  119.6   0.98906     4.160
5 ...... 3       2.3724 /_  119.5   0.98779     4.160
6 ...... 3       2.3709 /_  119.5   0.98714     4.160
4 ...... 3       2.3742 /_  119.5   0.98853     4.160
2 ...... 2        2.394 /_ -120.3   0.99677     4.160
610 .... 1      0.26333 /_   -2.7   0.95019     0.480        1-2    0.45801 /_   27.8   0.95419
   -     2      0.26732 /_ -122.1   0.96461     0.480        2-3    0.46608 /_  -92.6     0.971
   -     3        0.268 /_  116.9   0.96707     0.480        3-1    0.45921 /_  146.8   0.95668
150R ... 1       2.4017 /_    0.0   0.99999     4.160        1-2     4.1599 /_   30.0   0.99999
   -     2       2.4018 /_ -120.0   0.99999     4.160        2-3       4.16 /_  -90.0   0.99999
   -     3       2.4018 /_  120.0   0.99999     4.160        3-1       4.16 /_  150.0   0.99999
